ieee14_modified_out.txt
ANDES 1.9.3
Copyright (C) 2015-2022 Hantao Cui

ANDES comes with ABSOLUTELY NO WARRANTY
Case file: ieee14_modified.xlsx
Report time: 03/14/2025 11:00:05 PM

Power flow converged in 5 iterations.
Flat-start: No

Statistics:
Buses                             14
Generators                         5
Committed Gens                     5
Loads                             11
Shunts                             2
Lines                             20
Transformers                       4
Areas                              2

EXTENDED SUMMARY:
                              P (pu)            Q (pu)

Generation                    2.2813           0.10551
Load                           2.237             0.954

BUS DATA:
                            Bus Name            Vm(pu)          Va(rad.)

1                               BUS1              1.03        2.3396e-20
2                               BUS2              1.03         -0.007952
3                               BUS3              1.01         -0.011775
4                               BUS4            1.0191         -0.018509
5                               BUS5            1.0232          -0.01604
6                               BUS6              1.03           -0.1352
7                               BUS7            1.0221        -0.0087836
8                               BUS8              1.03          0.049625
9                               BUS9           0.99826         -0.075953
10                             BUS10           0.97245          -0.10926
11                             BUS11           0.98719          -0.13229
12                             BUS12           0.96101          -0.20093
13                             BUS13           0.93869          -0.20437
14                             BUS14           0.86579          -0.26082

LINE DATA:
                           Line Name     Fr. Bus (idx)      To Bus (idx)       P From (pu)       Q From (pu)         P To (pu)         Q To (pu)

Line_1                        Line_1                 1                 2           0.51572          -0.27868          -0.51438          0.058711
Line_2                        Line_2                 1                 5           0.31558         -0.053095          -0.31427          -0.14895
Line_3                        Line_3                 2                 3           0.16962           0.28318          -0.16774          -0.45754
Line_4                        Line_4                 2                 4           0.30289          0.084159           -0.3013           -0.2221
Line_5                        Line_5                 2                 5           0.22486          0.014472          -0.22408          -0.15795
Line_6                        Line_6                 3                 4          0.067738          -0.26696          -0.06671           0.21689
Line_7                        Line_7                 4                 5          -0.33703          -0.29172           0.33767           0.29373
Line_8                        Line_8                 6                11          0.018525           0.04658         -0.017625         -0.044696
Line_9                        Line_9                 6                12          0.079546          0.033317         -0.076099         -0.026143
Line_10                      Line_10                 6                13           0.17661          0.095242          -0.16657         -0.075466
Line_11                      Line_11                 7                 9           0.15562          0.060548          -0.15562         -0.048802
Line_12                      Line_12                 9                10           0.10942          0.036619          -0.10772         -0.032104
Line_13                      Line_13                 9                14           0.17262          0.054734          -0.15589         -0.019142
Line_14                      Line_14                10                11          0.017717         -0.025896         -0.017375          0.026696
Line_15                      Line_15                12                13          0.015099          0.010143         -0.014783        -0.0098568
Line_16                      Line_16                13                14          0.046355          0.027323         -0.044108         -0.022749
Line_17                      Line_17                 4                 7          -0.19438         0.0073031           0.19438        -0.0054107
Line_18                      Line_18                 4                 9           0.42142           0.18962          -0.42142          -0.16122
Line_19                      Line_19                 6                 5          -0.12469          0.017813           0.12469         -0.002836
Line_20                      Line_20                 8                 7              0.35          0.076306             -0.35         -0.055137

OTHER ALGEBRAIC VARIABLES:
                                    

q PV 2                       0.56752
q PV 3                       -0.4745
q PV 4                       0.26795
q PV 5                      0.076306
q Slack 1                   -0.33177
p Slack 1                    0.83129

